Version 4
SHEET 1 880 680
WIRE -96 -16 -176 -16
WIRE 80 -16 -96 -16
WIRE 480 -16 80 -16
WIRE 704 -16 480 -16
WIRE 848 -16 704 -16
WIRE 704 16 704 -16
WIRE 848 32 848 -16
WIRE -432 48 -512 48
WIRE -384 48 -432 48
WIRE -176 48 -176 -16
WIRE -176 48 -240 48
WIRE 480 48 480 -16
WIRE 528 48 480 48
WIRE 640 64 592 64
WIRE -96 80 -96 64
WIRE 528 80 -96 80
WIRE -96 96 -96 80
WIRE 480 112 96 112
WIRE -512 128 -512 48
WIRE -432 128 -432 48
WIRE 640 160 640 64
WIRE 704 160 704 112
WIRE 752 160 704 160
WIRE 848 160 848 96
WIRE 848 160 752 160
WIRE 80 176 80 -16
WIRE 80 176 -16 176
WIRE 112 176 80 176
WIRE 464 176 240 176
WIRE 480 176 480 112
WIRE 480 176 464 176
WIRE 544 176 480 176
WIRE 464 192 464 176
WIRE 496 192 464 192
WIRE 96 208 96 112
WIRE 112 208 96 208
WIRE 272 208 240 208
WIRE 752 208 752 160
WIRE -96 240 -96 160
WIRE -16 272 -16 240
WIRE 272 272 272 208
WIRE 496 272 496 192
WIRE 544 272 544 240
FLAG -512 208 0
FLAG 752 272 0
FLAG -96 240 0
FLAG -16 272 0
FLAG 544 272 0
FLAG 272 272 0
FLAG 640 240 0
FLAG -432 208 0
FLAG 496 352 0
SYMBOL current -512 208 R180
WINDOW 0 24 80 Left 2
WINDOW 3 24 0 Left 2
WINDOW 123 0 0 Left 2
WINDOW 39 0 0 Left 2
SYMATTR InstName I1
SYMATTR Value PULSE(0.01 200m 0 0.1 1m .5 2)
SYMBOL diode 864 96 R180
WINDOW 0 24 64 Left 2
WINDOW 3 24 0 Left 2
SYMATTR InstName D2
SYMATTR Value d_schottky
SYMBOL cap 736 208 R0
SYMATTR InstName C1
SYMATTR Value 10MEG
SYMBOL npn 640 16 R0
SYMATTR InstName Q1
SYMBOL Opamps\\opamp 560 128 M180
SYMATTR InstName U1
SYMBOL zener -80 160 R180
WINDOW 0 24 64 Left 2
WINDOW 3 24 0 Left 2
SYMATTR InstName D3
SYMATTR Value BZX84-A3V6
SYMBOL res -112 -32 R0
SYMATTR InstName R1
SYMATTR Value 100k
SYMBOL cap -32 176 R0
SYMATTR InstName C2
SYMATTR Value 1
SYMBOL cap 528 176 R0
SYMATTR InstName C3
SYMATTR Value 1
SYMBOL LP38691_3P3_TRANS 176 192 R0
SYMATTR InstName U2
SYMBOL diode -304 64 R270
WINDOW 0 32 32 VTop 2
WINDOW 3 0 32 VBottom 2
SYMATTR InstName D4
SYMATTR Value d_schottky
SYMBOL res 624 144 R0
SYMATTR InstName R2
SYMATTR Value 100K
SYMBOL current 496 272 R0
WINDOW 123 0 0 Left 2
WINDOW 39 0 0 Left 2
SYMATTR InstName I2
SYMATTR Value 100m
SYMBOL res -448 112 R0
SYMATTR InstName R3
SYMATTR Value 24
SYMBOL res -288 32 R90
WINDOW 0 0 56 VBottom 2
WINDOW 3 32 56 VTop 2
SYMATTR InstName R4
SYMATTR Value 10
TEXT -560 296 Left 2 !.tran 2
TEXT 40 368 Left 2 !.lib opamp.sub
TEXT 40 408 Left 2 !.model d_schottky D(Ron=.1n Roff=1G Vfwd=0.2)
TEXT 48 448 Left 2 !.lib .\\BZX84-A3V6.prm
