Version 4
SHEET 1 880 680
WIRE -96 -16 -176 -16
WIRE 496 -16 -96 -16
WIRE 640 -16 496 -16
WIRE 496 16 496 -16
WIRE 640 32 640 -16
WIRE -304 48 -400 48
WIRE -176 48 -176 -16
WIRE -176 48 -240 48
WIRE -48 64 -96 64
WIRE 432 64 384 64
WIRE -48 80 -48 64
WIRE 320 80 -48 80
WIRE -48 96 -48 80
WIRE -400 128 -400 48
WIRE 496 144 496 112
WIRE 544 144 496 144
WIRE 640 144 640 96
WIRE 640 144 544 144
FLAG -400 208 0
FLAG 544 208 0
FLAG -48 160 0
SYMBOL current -400 208 R180
WINDOW 0 24 80 Left 2
WINDOW 3 24 0 Left 2
SYMATTR InstName I1
SYMBOL diode -304 64 R270
WINDOW 0 32 32 VTop 2
WINDOW 3 0 32 VBottom 2
SYMATTR InstName D1
SYMBOL diode 656 96 R180
WINDOW 0 24 64 Left 2
WINDOW 3 24 0 Left 2
SYMATTR InstName D2
SYMBOL cap 528 144 R0
SYMATTR InstName C1
SYMBOL npn 432 16 R0
SYMATTR InstName Q1
SYMBOL Opamps\\opamp 352 128 M180
SYMATTR InstName U1
SYMBOL zener -32 160 R180
WINDOW 0 24 64 Left 2
WINDOW 3 24 0 Left 2
SYMATTR InstName D3
SYMBOL res -112 -32 R0
SYMATTR InstName R1
TEXT 88 48 Left 1 ;connect voltage regulator here
